
**** 09/16/20 20:04:49 ****** PSpice 17.2.0 (March 2016) ****** ID# 0 ********

 ** Profile: "SCHEMATIC1-sim"  [ C:\Users\Cthulhu\Downloads\IoT_project-master\OrCAD\Red-PI\test-pspicefiles\schematic1\sim.sim ] 


 ****     CIRCUIT DESCRIPTION


******************************************************************************




** Creating circuit file "sim.cir" 
** WARNING: THIS AUTOMATICALLY GENERATED FILE MAY BE OVERWRITTEN BY SUBSEQUENT SIMULATIONS

*Libraries: 
* Profile Libraries :
* Local Libraries :
* From [PSPICE NETLIST] section of C:\Users\Cthulhu\AppData\Roaming\SPB_Data\cdssetup\OrCAD_PSpice\17.2.0\PSpice.ini file:
.lib "nom.lib" 

*Analysis directives: 
.TRAN  0 100N 0 0.01n 
.OPTIONS ADVCONV
.PROBE64 V(alias(*)) I(alias(*)) W(alias(*)) D(alias(*)) NOISE(alias(*)) 
.INC "..\SCHEMATIC1.net" 



**** INCLUDING SCHEMATIC1.net ****
* source TEST
V_V1         N14486 0  AC 0
+SIN 0 3.3 915e6 0 0 0
R_R2         N15853 N14520  19 TC=0,0 
C_C1         0 N14579  34.8p  TC=0,0 
C_C2         0 N14520  52.2p  TC=0,0 
L_L1         N14579 N14520  1.40n  
C_C3         0 N15853  36.4p  TC=0,0 
I_I1         N14486 0 DC 0Adc AC 0Aac
+SIN 0 15.5m 915e6 0 0 0
R_R3         N14486 N14579  1n TC=0,0 

**** RESUMING sim.cir ****
.END

**** 09/16/20 20:04:49 ****** PSpice 17.2.0 (March 2016) ****** ID# 0 ********

 ** Profile: "SCHEMATIC1-sim"  [ C:\Users\Cthulhu\Downloads\IoT_project-master\OrCAD\Red-PI\test-pspicefiles\schematic1\sim.sim ] 


 ****     INITIAL TRANSIENT SOLUTION       TEMPERATURE =   27.000 DEG C


******************************************************************************



 NODE   VOLTAGE     NODE   VOLTAGE     NODE   VOLTAGE     NODE   VOLTAGE


(N14486)    0.0000 (N14520)    0.0000 (N14579)    0.0000 (N15853)    0.0000 




    VOLTAGE SOURCE CURRENTS
    NAME         CURRENT

    V_V1         0.000E+00

    TOTAL POWER DISSIPATION   0.00E+00  WATTS



          JOB CONCLUDED

**** 09/16/20 20:04:49 ****** PSpice 17.2.0 (March 2016) ****** ID# 0 ********

 ** Profile: "SCHEMATIC1-sim"  [ C:\Users\Cthulhu\Downloads\IoT_project-master\OrCAD\Red-PI\test-pspicefiles\schematic1\sim.sim ] 


 ****     JOB STATISTICS SUMMARY


******************************************************************************



  Total job time (using Solver 1)   =         .09
