
**** 09/16/20 18:26:09 ****** PSpice 17.2.0 (March 2016) ****** ID# 0 ********

 ** Profile: "SCHEMATIC1-sim"  [ C:\Users\Cthulhu\Downloads\IoT_project-master\OrCAD\Amplificador_PTC\amplificador_ptc-pspicefiles\sc


 ****     CIRCUIT DESCRIPTION


******************************************************************************




** Creating circuit file "sim.cir" 
** WARNING: THIS AUTOMATICALLY GENERATED FILE MAY BE OVERWRITTEN BY SUBSEQUENT SIMULATIONS

*Libraries: 
* Profile Libraries :
* Local Libraries :
* From [PSPICE NETLIST] section of C:\Users\Cthulhu\AppData\Roaming\SPB_Data\cdssetup\OrCAD_PSpice\17.2.0\PSpice.ini file:
.lib "nom.lib" 

*Analysis directives: 
.DC LIN TEMP -20 60 5 
.OPTIONS ADVCONV
.PROBE64 V(alias(*)) I(alias(*)) W(alias(*)) D(alias(*)) NOISE(alias(*)) 
.INC "..\SCHEMATIC1.net" 



**** INCLUDING SCHEMATIC1.net ****
* source AMPLIFICADOR_PTC
R_R1         N00456 N00366  10k TC=0,0 
R_R2         N00397 VCC  195.23k TC=0,0 
R_R3         0 N00397  200k TC=0,0 
R_R4         VOUT N00366  120k TC=0,0 
V_V2         VCC 0 3.3
X_U2         N00451 VCC TFPT1206L1002 PARAMS: TOL25=0 TOLSLOPE=0
R_R5         0 N00451  10k TC=0,0 
X_U3         N00451 N00456 VCC 0 N00456 LTC1050/LT
X_U4         N00397 N00366 VCC 0 VOUT LTC1050/LT

**** RESUMING sim.cir ****
.END

**** 09/16/20 18:26:09 ****** PSpice 17.2.0 (March 2016) ****** ID# 0 ********

 ** Profile: "SCHEMATIC1-sim"  [ C:\Users\Cthulhu\Downloads\IoT_project-master\OrCAD\Amplificador_PTC\amplificador_ptc-pspicefiles\sc


 ****     Diode MODEL PARAMETERS


******************************************************************************




               X_U3.DM1        X_U3.DM2        X_U3.DM3        X_U3.DMG1       
          IS   10.000000E-21  800.000000E-18  100.000000E-18    7.000000E-12 
           N                                                    2.31         
          BV                   19.8                                          


               X_U3.DMG2       X_U4.DM1        X_U4.DM2        X_U4.DM3        
          IS    6.300000E-12   10.000000E-21  800.000000E-18  100.000000E-18 
           N    2.31                                                         
          BV                                   19.8                          


               X_U4.DMG1       X_U4.DMG2       
          IS    7.000000E-12    6.300000E-12 
           N    2.31            2.31         


**** 09/16/20 18:26:09 ****** PSpice 17.2.0 (March 2016) ****** ID# 0 ********

 ** Profile: "SCHEMATIC1-sim"  [ C:\Users\Cthulhu\Downloads\IoT_project-master\OrCAD\Amplificador_PTC\amplificador_ptc-pspicefiles\sc


 ****     MOSFET MODEL PARAMETERS


******************************************************************************




               X_U3.PM1        X_U3.PM2        X_U4.PM1        X_U4.PM2        
               PMOS            PMOS            PMOS            PMOS            
       LEVEL    1               1               1               1            
           L  100.000000E-06  100.000000E-06  100.000000E-06  100.000000E-06 
           W  100.000000E-06  100.000000E-06  100.000000E-06  100.000000E-06 
         VTO   -1.1            -1.100001       -1.1            -1.100001     
          KP    1.850600E-03    1.850600E-03    1.850600E-03    1.850600E-03 
       GAMMA    0               0               0               0            
         PHI     .6              .6              .6              .6          
      LAMBDA    0               0               0               0            
          IS   10.000000E-15   10.000000E-15   10.000000E-15   10.000000E-15 
          JS    0               0               0               0            
          PB     .8              .8              .8              .8          
        PBSW     .8              .8              .8              .8          
          CJ    0               0               0               0            
        CJSW    0               0               0               0            
        CGSO    0               0               0               0            
        CGDO    0               0               0               0            
        CGBO    0               0               0               0            
         TOX    0               0               0               0            
          XJ    0               0               0               0            
       UCRIT   10.000000E+03   10.000000E+03   10.000000E+03   10.000000E+03 
      DIOMOD    1               1               1               1            
         VFB    0               0               0               0            
        LETA    0               0               0               0            
        WETA    0               0               0               0            
          U0    0               0               0               0            
        TEMP    0               0               0               0            
         VDD    5               5               5               5            
       XPART    0               0               0               0            



          JOB CONCLUDED

**** 09/16/20 18:26:09 ****** PSpice 17.2.0 (March 2016) ****** ID# 0 ********

 ** Profile: "SCHEMATIC1-sim"  [ C:\Users\Cthulhu\Downloads\IoT_project-master\OrCAD\Amplificador_PTC\amplificador_ptc-pspicefiles\sc


 ****     JOB STATISTICS SUMMARY


******************************************************************************



  Total job time (using Solver 1)   =         .06
